taxonomy/R1-12470-2.glm
// R1-12470-2.glm 

module powerflow
{
	solver_method NR;
}

object regulator:2078
{
	name R1-12-47-2_reg_1;
	from R1-12-47-2_node_338;
	to R1-12-47-2_meter_14;
	phases ABCN;
	configuration regulator_configuration:2079;
}


object regulator_configuration:2079
{
	name feeder_reg_cfg;
	connect_type WYE_WYE;
	Control OUTPUT_VOLTAGE;
	band_center 7200;
	band_width 120;
	time_delay 30;
	raise_taps 16;
	lower_taps 16;
	regulation 0.10;
	tap_pos_A 0;
	tap_pos_B 0;
	tap_pos_C 0;
}


object capacitor:2076
{
	name R1-12-47-2_cap_1;
	phases ABCN;
	pt_phase A;
	parent R1-12-47-2_node_54;
	phases_connected ABC;
	control VOLT;
	voltage_set_high 7300; 
	voltage_set_low 7100; 
	capacitor_A 0.15 MVAr;
	capacitor_B 0.15 MVAr;
	capacitor_C 0.15 MVAr;
	control_level INDIVIDUAL;
	time_delay 30.0;
	dwell_time 30.0;
	cap_nominal_voltage 7200;
	nominal_voltage 7200;
}


object fuse:1988
{
	name R1-12-47-2_fuse_1;
	phases ABCN;
	from R1-12-47-2_node_4;
	to R1-12-47-2_node_5;
	current_limit 80;
	status CLOSED;
}

object fuse:1989
{
	name R1-12-47-2_fuse_2;
	phases ABCN;
	from R1-12-47-2_node_5;
	to R1-12-47-2_node_6;
	current_limit 40;
	status CLOSED;
}

object fuse:1990
{
	name R1-12-47-2_fuse_3;
	phases AN;
	from R1-12-47-2_node_7;
	to R1-12-47-2_node_8;
	current_limit 40;
	status CLOSED;
}

object fuse:1991
{
	name R1-12-47-2_fuse_4;
	phases AN;
	from R1-12-47-2_node_10;
	to R1-12-47-2_node_11;
	current_limit 30;
	status CLOSED;
}

object fuse:1992
{
	name R1-12-47-2_fuse_5;
	phases AN;
	from R1-12-47-2_node_12;
	to R1-12-47-2_node_13;
	current_limit 30;
	status CLOSED;
}

object fuse:1993
{
	name R1-12-47-2_fuse_6;
	phases CN;
	from R1-12-47-2_node_18;
	to R1-12-47-2_node_19;
	current_limit 10;
	status CLOSED;
}

object fuse:1994
{
	name R1-12-47-2_fuse_7;
	phases BN;
	from R1-12-47-2_node_21;
	to R1-12-47-2_node_22;
	current_limit 10;
	status CLOSED;
}

object fuse:1995
{
	name R1-12-47-2_fuse_8;
	phases AN;
	from R1-12-47-2_node_24;
	to R1-12-47-2_node_25;
	current_limit 10;
	status CLOSED;
}

object fuse:1996
{
	name R1-12-47-2_fuse_9;
	phases BCN;
	from R1-12-47-2_node_28;
	to R1-12-47-2_node_29;
	current_limit 80;
	status CLOSED;
}

object fuse:1997
{
	name R1-12-47-2_fuse_10;
	phases BN;
	from R1-12-47-2_node_33;
	to R1-12-47-2_node_34;
	current_limit 30;
	status CLOSED;
}

object fuse:1998
{
	name R1-12-47-2_fuse_11;
	phases CN;
	from R1-12-47-2_node_33;
	to R1-12-47-2_node_35;
	current_limit 30;
	status CLOSED;
}

object fuse:1999
{
	name R1-12-47-2_fuse_12;
	phases CN;
	from R1-12-47-2_node_36;
	to R1-12-47-2_node_37;
	current_limit 10;
	status CLOSED;
}

object fuse:2000
{
	name R1-12-47-2_fuse_13;
	phases CN;
	from R1-12-47-2_node_39;
	to R1-12-47-2_node_40;
	current_limit 10;
	status CLOSED;
}

object fuse:2001
{
	name R1-12-47-2_fuse_14;
	phases CN;
	from R1-12-47-2_node_41;
	to R1-12-47-2_node_43;
	current_limit 10;
	status CLOSED;
}

object fuse:2002
{
	name R1-12-47-2_fuse_15;
	phases CN;
	from R1-12-47-2_node_42;
	to R1-12-47-2_node_44;
	current_limit 10;
	status CLOSED;
}

object fuse:2003
{
	name R1-12-47-2_fuse_16;
	phases CN;
	from R1-12-47-2_node_45;
	to R1-12-47-2_node_46;
	current_limit 10;
	status CLOSED;
}

object fuse:2004
{
	name R1-12-47-2_fuse_17;
	phases CN;
	from R1-12-47-2_node_49;
	to R1-12-47-2_node_50;
	current_limit 10;
	status CLOSED;
}

object fuse:2005
{
	name R1-12-47-2_fuse_18;
	phases CN;
	from R1-12-47-2_node_51;
	to R1-12-47-2_node_52;
	current_limit 10;
	status CLOSED;
}

object fuse:2006
{
	name R1-12-47-2_fuse_19;
	phases CN;
	from R1-12-47-2_node_51;
	to R1-12-47-2_node_53;
	current_limit 10;
	status CLOSED;
}

object fuse:2007
{
	name R1-12-47-2_fuse_20;
	phases BN;
	from R1-12-47-2_node_57;
	to R1-12-47-2_node_58;
	current_limit 65;
	status CLOSED;
}

object fuse:2008
{
	name R1-12-47-2_fuse_21;
	phases BN;
	from R1-12-47-2_node_61;
	to R1-12-47-2_node_62;
	current_limit 10;
	status CLOSED;
}

object fuse:2009
{
	name R1-12-47-2_fuse_22;
	phases BN;
	from R1-12-47-2_node_67;
	to R1-12-47-2_node_68;
	current_limit 10;
	status CLOSED;
}

object fuse:2010
{
	name R1-12-47-2_fuse_23;
	phases BN;
	from R1-12-47-2_node_73;
	to R1-12-47-2_node_74;
	current_limit 10;
	status CLOSED;
}

object fuse:2011
{
	name R1-12-47-2_fuse_24;
	phases BN;
	from R1-12-47-2_node_75;
	to R1-12-47-2_node_76;
	current_limit 10;
	status CLOSED;
}

object fuse:2012
{
	name R1-12-47-2_fuse_25;
	phases BN;
	from R1-12-47-2_node_78;
	to R1-12-47-2_node_79;
	current_limit 10;
	status CLOSED;
}

object fuse:2013
{
	name R1-12-47-2_fuse_26;
	phases BN;
	from R1-12-47-2_node_81;
	to R1-12-47-2_node_82;
	current_limit 10;
	status CLOSED;
}

object fuse:2014
{
	name R1-12-47-2_fuse_27;
	phases BN;
	from R1-12-47-2_node_81;
	to R1-12-47-2_node_83;
	current_limit 10;
	status CLOSED;
}

object fuse:2015
{
	name R1-12-47-2_fuse_28;
	phases BN;
	from R1-12-47-2_node_84;
	to R1-12-47-2_node_85;
	current_limit 40;
	status CLOSED;
}

object fuse:2016
{
	name R1-12-47-2_fuse_29;
	phases BN;
	from R1-12-47-2_node_85;
	to R1-12-47-2_node_86;
	current_limit 25;
	status CLOSED;
}

object fuse:2017
{
	name R1-12-47-2_fuse_30;
	phases BN;
	from R1-12-47-2_node_89;
	to R1-12-47-2_node_90;
	current_limit 15;
	status CLOSED;
}

object fuse:2018
{
	name R1-12-47-2_fuse_31;
	phases BN;
	from R1-12-47-2_node_93;
	to R1-12-47-2_node_95;
	current_limit 10;
	status CLOSED;
}

object fuse:2019
{
	name R1-12-47-2_fuse_32;
	phases BN;
	from R1-12-47-2_node_85;
	to R1-12-47-2_node_96;
	current_limit 10;
	status CLOSED;
}

object fuse:2020
{
	name R1-12-47-2_fuse_33;
	phases BN;
	from R1-12-47-2_node_97;
	to R1-12-47-2_node_336;
	current_limit 20;
	status CLOSED;
}

object fuse:2021
{
	name R1-12-47-2_fuse_34;
	phases BN;
	from R1-12-47-2_node_100;
	to R1-12-47-2_node_102;
	current_limit 10;
	status CLOSED;
}

object fuse:2022
{
	name R1-12-47-2_fuse_35;
	phases BN;
	from R1-12-47-2_node_101;
	to R1-12-47-2_node_103;
	current_limit 10;
	status CLOSED;
}

object fuse:2023
{
	name R1-12-47-2_fuse_36;
	phases BN;
	from R1-12-47-2_node_99;
	to R1-12-47-2_node_105;
	current_limit 10;
	status CLOSED;
}

object fuse:2024
{
	name R1-12-47-2_fuse_37;
	phases BN;
	from R1-12-47-2_node_336;
	to R1-12-47-2_node_337;
	current_limit 10;
	status CLOSED;
}

object fuse:2025
{
	name R1-12-47-2_fuse_38;
	phases BN;
	from R1-12-47-2_node_107;
	to R1-12-47-2_node_108;
	current_limit 10;
	status CLOSED;
}

object fuse:2026
{
	name R1-12-47-2_fuse_39;
	phases BN;
	from R1-12-47-2_node_109;
	to R1-12-47-2_node_110;
	current_limit 10;
	status CLOSED;
}

object fuse:2027
{
	name R1-12-47-2_fuse_40;
	phases ABCN;
	from R1-12-47-2_node_57;
	to R1-12-47-2_node_111;
	current_limit 120;
	status CLOSED;
}

object fuse:2028
{
	name R1-12-47-2_fuse_41;
	phases AN;
	from R1-12-47-2_node_112;
	to R1-12-47-2_node_113;
	current_limit 10;
	status CLOSED;
}

object fuse:2029
{
	name R1-12-47-2_fuse_42;
	phases AN;
	from R1-12-47-2_node_114;
	to R1-12-47-2_node_115;
	current_limit 10;
	status CLOSED;
}

object fuse:2030
{
	name R1-12-47-2_fuse_43;
	phases BN;
	from R1-12-47-2_node_116;
	to R1-12-47-2_node_323;
	current_limit 30;
	status CLOSED;
}

object fuse:2031
{
	name R1-12-47-2_fuse_44;
	phases ABN;
	from R1-12-47-2_node_118;
	to R1-12-47-2_node_119;
	current_limit 85;
	status CLOSED;
}

object fuse:2032
{
	name R1-12-47-2_fuse_45;
	phases BN;
	from R1-12-47-2_node_122;
	to R1-12-47-2_node_123;
	current_limit 10;
	status CLOSED;
}

object fuse:2033
{
	name R1-12-47-2_fuse_46;
	phases AN;
	from R1-12-47-2_node_129;
	to R1-12-47-2_node_128;
	current_limit 15;
	status CLOSED;
}

object fuse:2034
{
	name R1-12-47-2_fuse_47;
	phases AN;
	from R1-12-47-2_node_133;
	to R1-12-47-2_node_135;
	current_limit 10;
	status CLOSED;
}

object fuse:2035
{
	name R1-12-47-2_fuse_48;
	phases AN;
	from R1-12-47-2_node_139;
	to R1-12-47-2_node_140;
	current_limit 10;
	status CLOSED;
}

object fuse:2036
{
	name R1-12-47-2_fuse_49;
	phases AN;
	from R1-12-47-2_node_126;
	to R1-12-47-2_node_141;
	current_limit 40;
	status CLOSED;
}

object fuse:2037
{
	name R1-12-47-2_fuse_50;
	phases AN;
	from R1-12-47-2_node_141;
	to R1-12-47-2_node_142;
	current_limit 10;
	status CLOSED;
}

object fuse:2038
{
	name R1-12-47-2_fuse_51;
	phases AN;
	from R1-12-47-2_node_144;
	to R1-12-47-2_node_145;
	current_limit 10;
	status CLOSED;
}

object fuse:2039
{
	name R1-12-47-2_fuse_52;
	phases AN;
	from R1-12-47-2_node_148;
	to R1-12-47-2_node_308;
	current_limit 10;
	status CLOSED;
}

object fuse:2040
{
	name R1-12-47-2_fuse_53;
	phases AN;
	from R1-12-47-2_node_148;
	to R1-12-47-2_node_150;
	current_limit 25;
	status CLOSED;
}

object fuse:2041
{
	name R1-12-47-2_fuse_54;
	phases CN;
	from R1-12-47-2_node_118;
	to R1-12-47-2_node_164;
	current_limit 50;
	status CLOSED;
}

object fuse:2042
{
	name R1-12-47-2_fuse_55;
	phases CN;
	from R1-12-47-2_node_164;
	to R1-12-47-2_node_165;
	current_limit 10;
	status CLOSED;
}

object fuse:2043
{
	name R1-12-47-2_fuse_56;
	phases CN;
	from R1-12-47-2_node_166;
	to R1-12-47-2_node_168;
	current_limit 30;
	status CLOSED;
}

object fuse:2044
{
	name R1-12-47-2_fuse_57;
	phases BN;
	from R1-12-47-2_node_184;
	to R1-12-47-2_node_334;
	current_limit 10;
	status CLOSED;
}

object fuse:2045
{
	name R1-12-47-2_fuse_58;
	phases CN;
	from R1-12-47-2_node_185;
	to R1-12-47-2_node_186;
	current_limit 10;
	status CLOSED;
}

object fuse:2046
{
	name R1-12-47-2_fuse_59;
	phases CN;
	from R1-12-47-2_node_187;
	to R1-12-47-2_node_188;
	current_limit 10;
	status CLOSED;
}

object fuse:2047
{
	name R1-12-47-2_fuse_60;
	phases CN;
	from R1-12-47-2_node_189;
	to R1-12-47-2_node_190;
	current_limit 30;
	status CLOSED;
}

object fuse:2048
{
	name R1-12-47-2_fuse_61;
	phases BN;
	from R1-12-47-2_node_208;
	to R1-12-47-2_node_209;
	current_limit 10;
	status CLOSED;
}

object fuse:2049
{
	name R1-12-47-2_fuse_62;
	phases CN;
	from R1-12-47-2_node_210;
	to R1-12-47-2_node_211;
	current_limit 15;
	status CLOSED;
}

object fuse:2050
{
	name R1-12-47-2_fuse_63;
	phases BCN;
	from R1-12-47-2_node_215;
	to R1-12-47-2_node_216;
	current_limit 10;
	status CLOSED;
}

object fuse:2051
{
	name R1-12-47-2_fuse_64;
	phases CN;
	from R1-12-47-2_node_217;
	to R1-12-47-2_node_335;
	current_limit 10;
	status CLOSED;
}

object fuse:2052
{
	name R1-12-47-2_fuse_65;
	phases BCN;
	from R1-12-47-2_node_217;
	to R1-12-47-2_node_320;
	current_limit 30;
	status CLOSED;
}

object fuse:2053
{
	name R1-12-47-2_fuse_66;
	phases BN;
	from R1-12-47-2_node_222;
	to R1-12-47-2_node_223;
	current_limit 40;
	status CLOSED;
}

object fuse:2054
{
	name R1-12-47-2_fuse_67;
	phases BN;
	from R1-12-47-2_node_232;
	to R1-12-47-2_node_233;
	current_limit 10;
	status CLOSED;
}

object fuse:2055
{
	name R1-12-47-2_fuse_68;
	phases BN;
	from R1-12-47-2_node_235;
	to R1-12-47-2_node_236;
	current_limit 10;
	status CLOSED;
}

object fuse:2056
{
	name R1-12-47-2_fuse_69;
	phases CN;
	from R1-12-47-2_node_238;
	to R1-12-47-2_node_239;
	current_limit 10;
	status CLOSED;
}

object fuse:2057
{
	name R1-12-47-2_fuse_70;
	phases CN;
	from R1-12-47-2_node_238;
	to R1-12-47-2_node_240;
	current_limit 10;
	status CLOSED;
}

object fuse:2058
{
	name R1-12-47-2_fuse_71;
	phases CN;
	from R1-12-47-2_node_242;
	to R1-12-47-2_node_243;
	current_limit 30;
	status CLOSED;
}

object fuse:2059
{
	name R1-12-47-2_fuse_72;
	phases CN;
	from R1-12-47-2_node_251;
	to R1-12-47-2_node_252;
	current_limit 10;
	status CLOSED;
}

object fuse:2060
{
	name R1-12-47-2_fuse_73;
	phases BN;
	from R1-12-47-2_node_254;
	to R1-12-47-2_node_255;
	current_limit 10;
	status CLOSED;
}

object fuse:2061
{
	name R1-12-47-2_fuse_74;
	phases BN;
	from R1-12-47-2_node_259;
	to R1-12-47-2_node_310;
	current_limit 15;
	status CLOSED;
}

object fuse:2062
{
	name R1-12-47-2_fuse_75;
	phases CN;
	from R1-12-47-2_node_265;
	to R1-12-47-2_node_266;
	current_limit 10;
	status CLOSED;
}

object fuse:2063
{
	name R1-12-47-2_fuse_76;
	phases CN;
	from R1-12-47-2_node_267;
	to R1-12-47-2_node_268;
	current_limit 10;
	status CLOSED;
}

object fuse:2064
{
	name R1-12-47-2_fuse_77;
	phases BN;
	from R1-12-47-2_node_272;
	to R1-12-47-2_node_273;
	current_limit 30;
	status CLOSED;
}

object fuse:2065
{
	name R1-12-47-2_fuse_78;
	phases BN;
	from R1-12-47-2_node_273;
	to R1-12-47-2_node_275;
	current_limit 20;
	status CLOSED;
}

object fuse:2066
{
	name R1-12-47-2_fuse_79;
	phases BN;
	from R1-12-47-2_node_275;
	to R1-12-47-2_node_276;
	current_limit 25;
	status CLOSED;
}

object fuse:2067
{
	name R1-12-47-2_fuse_80;
	phases BN;
	from R1-12-47-2_node_117;
	to R1-12-47-2_node_307;
	current_limit 10;
	status CLOSED;
}

object fuse:2068
{
	name R1-12-47-2_fuse_81;
	phases BN;
	from R1-12-47-2_node_315;
	to R1-12-47-2_node_316;
	current_limit 10;
	status CLOSED;
}

object fuse:2069
{
	name R1-12-47-2_fuse_82;
	phases BN;
	from R1-12-47-2_node_106;
	to R1-12-47-2_node_318;
	current_limit 10;
	status CLOSED;
}

object fuse:2070
{
	name R1-12-47-2_fuse_83;
	phases BN;
	from R1-12-47-2_node_320;
	to R1-12-47-2_node_321;
	current_limit 10;
	status CLOSED;
}

object fuse:2071
{
	name R1-12-47-2_fuse_84;
	phases AN;
	from R1-12-47-2_node_329;
	to R1-12-47-2_node_331;
	current_limit 10;
	status CLOSED;
}


object line_configuration:21
{
	conductor_A underground_line_conductor:2;
	conductor_B underground_line_conductor:2;
	conductor_C underground_line_conductor:2;
	conductor_N underground_line_conductor:2;
	spacing line_spacing:10;
}

object line_configuration:22
{
	conductor_A overhead_line_conductor:3;
	conductor_B overhead_line_conductor:3;
	conductor_C overhead_line_conductor:3;
	conductor_N overhead_line_conductor:3;
	spacing line_spacing:11;
}

object line_configuration:23
{
	conductor_A overhead_line_conductor:4;
	conductor_B overhead_line_conductor:4;
	conductor_C overhead_line_conductor:4;
	conductor_N overhead_line_conductor:4;
	spacing line_spacing:11;
}

object line_configuration:24
{
	conductor_A underground_line_conductor:5;
	conductor_B underground_line_conductor:5;
	conductor_C underground_line_conductor:5;
	conductor_N underground_line_conductor:5;
	spacing line_spacing:10;
}

object line_configuration:25
{
	conductor_A overhead_line_conductor:4;
	conductor_N overhead_line_conductor:4;
	spacing line_spacing:12;
}

object line_configuration:26
{
	conductor_A underground_line_conductor:5;
	conductor_N underground_line_conductor:5;
	spacing line_spacing:13;
}

object line_configuration:27
{
	conductor_A overhead_line_conductor:3;
	conductor_B overhead_line_conductor:3;
	conductor_C overhead_line_conductor:3;
	conductor_N overhead_line_conductor:3;
	spacing line_spacing:11;
}

object line_configuration:28
{
	conductor_C overhead_line_conductor:4;
	conductor_N overhead_line_conductor:4;
	spacing line_spacing:14;
}

object line_configuration:29
{
	conductor_C overhead_line_conductor:6;
	conductor_N overhead_line_conductor:6;
	spacing line_spacing:14;
}

object line_configuration:30
{
	conductor_B overhead_line_conductor:6;
	conductor_N overhead_line_conductor:6;
	spacing line_spacing:15;
}

object line_configuration:31
{
	conductor_B overhead_line_conductor:4;
	conductor_N overhead_line_conductor:4;
	spacing line_spacing:15;
}

object line_configuration:32
{
	conductor_A overhead_line_conductor:7;
	conductor_N overhead_line_conductor:7;
	spacing line_spacing:12;
}

object line_configuration:33
{
	conductor_B overhead_line_conductor:6;
	conductor_C overhead_line_conductor:6;
	conductor_N overhead_line_conductor:6;
	spacing line_spacing:16;
}

object line_configuration:34
{
	conductor_C overhead_line_conductor:4;
	conductor_N overhead_line_conductor:4;
	spacing line_spacing:14;
}

object line_configuration:35
{
	conductor_B overhead_line_conductor:4;
	conductor_C overhead_line_conductor:4;
	conductor_N overhead_line_conductor:4;
	spacing line_spacing:16;
}

object line_configuration:36
{
	conductor_B underground_line_conductor:5;
	conductor_N underground_line_conductor:5;
	spacing line_spacing:17;
}

object line_configuration:37
{
	conductor_C underground_line_conductor:5;
	conductor_N underground_line_conductor:5;
	spacing line_spacing:18;
}

object line_configuration:38
{
	conductor_C overhead_line_conductor:8;
	conductor_N overhead_line_conductor:8;
	spacing line_spacing:14;
}

object line_configuration:39
{
	conductor_A overhead_line_conductor:3;
	conductor_B overhead_line_conductor:3;
	conductor_C overhead_line_conductor:3;
	conductor_N overhead_line_conductor:3;
	spacing line_spacing:11;
}

object line_configuration:40
{
	conductor_A overhead_line_conductor:9;
	conductor_B overhead_line_conductor:9;
	conductor_C overhead_line_conductor:9;
	conductor_N overhead_line_conductor:9;
	spacing line_spacing:11;
}

object line_configuration:41
{
	conductor_B overhead_line_conductor:8;
	conductor_N overhead_line_conductor:8;
	spacing line_spacing:15;
}

object line_configuration:42
{
	conductor_B underground_line_conductor:5;
	conductor_N underground_line_conductor:5;
	spacing line_spacing:15;
}

object line_configuration:43
{
	conductor_A overhead_line_conductor:9;
	conductor_B overhead_line_conductor:9;
	conductor_C overhead_line_conductor:9;
	conductor_N overhead_line_conductor:9;
	spacing line_spacing:11;
}

object line_configuration:44
{
	conductor_A overhead_line_conductor:6;
	conductor_N overhead_line_conductor:6;
	spacing line_spacing:12;
}

object line_configuration:45
{
	conductor_A overhead_line_conductor:6;
	conductor_B overhead_line_conductor:6;
	conductor_N overhead_line_conductor:6;
	spacing line_spacing:19;
}

object line_configuration:46
{
	conductor_A overhead_line_conductor:7;
	conductor_B overhead_line_conductor:7;
	conductor_N overhead_line_conductor:7;
	spacing line_spacing:19;
}

object line_configuration:47
{
	conductor_A overhead_line_conductor:6;
	conductor_B overhead_line_conductor:6;
	conductor_N overhead_line_conductor:6;
	spacing line_spacing:19;
}

object line_configuration:48
{
	conductor_B underground_line_conductor:5;
	conductor_C underground_line_conductor:5;
	conductor_N underground_line_conductor:5;
	spacing line_spacing:20;
}

object line_configuration:49
{
	conductor_A underground_line_conductor:5;
	conductor_N underground_line_conductor:5;
	spacing line_spacing:12;
}


object line_spacing:10
{
	distance_AB 0.0 in;
	distance_BC 0.0 in;
	distance_AC 0.0 in;
	distance_AN 0.0 in;
	distance_BN 0.0 in;
	distance_CN 0.0 in;
}

object line_spacing:11
{
	distance_AB 57.6 in;
	distance_BC 57.6 in;
	distance_AC 57.6 in;
	distance_AN 84.0 in;
	distance_BN 84.0 in;
	distance_CN 84.0 in;
}

object line_spacing:12
{
	distance_AN 84.0 in;
}

object line_spacing:13
{
	distance_AN 0.0 in;
}

object line_spacing:14
{
	distance_CN 84.0 in;
}

object line_spacing:15
{
	distance_BN 84.0 in;
}

object line_spacing:16
{
	distance_BC 57.6 in;
	distance_BN 84.0 in;
	distance_CN 84.0 in;
}

object line_spacing:17
{
	distance_BN 0.0 in;
}

object line_spacing:18
{
	distance_CN 0.0 in;
}

object line_spacing:19
{
	distance_AB 57.6 in;
	distance_AN 84.0 in;
	distance_BN 84.0 in;
}

object line_spacing:20
{
	distance_BC 0.0 in;
	distance_BN 0.0 in;
	distance_CN 0.0 in;
}


object load:387
{
	name R1-12-47-2_load_1;
	parent R1-12-47-2_meter_1;
	phases ABCN;
	voltage_A 7200+0.0j;
	voltage_B -3600-6235j;
	voltage_C -3600+6235j;
	constant_power_A 0+0j;
	constant_power_B 0+0j;
	constant_power_C 7585.7348+93.6417j;
	nominal_voltage 7200;
	load_class C;
}

object load:388
{
	name R1-12-47-2_load_2;
	parent R1-12-47-2_meter_2;
	phases ABCN;
	voltage_A 7200+0.0j;
	voltage_B -3600-6235j;
	voltage_C -3600+6235j;
	constant_power_A 82333+0j;
	constant_power_B 82333+0j;
	constant_power_C 82334+0j;
	nominal_voltage 7200;
	load_class C;
}

object load:389
{
	name R1-12-47-2_load_3;
	parent R1-12-47-2_meter_3;
	phases ABCN;
	voltage_A 7200+0.0j;
	voltage_B -3600-6235j;
	voltage_C -3600+6235j;
	constant_power_A 15564.4725+222.4254j;
	constant_power_B 11118.2659+338.5019j;
	constant_power_C 25285.7827+312.1391j;
	nominal_voltage 7200;
	load_class C;
}

object load:390
{
	name R1-12-47-2_load_4;
	parent R1-12-47-2_meter_4;
	phases AN;
	voltage_A 7200+0.0j;
	constant_power_A 15564.4725+222.4254j;
	nominal_voltage 7200;
	load_class C;
}

object load:391
{
	name R1-12-47-2_load_5;
	parent R1-12-47-2_meter_5;
	phases AN;
	voltage_A 7200+0.0j;
	constant_power_A 38911.1812+556.0636j;
	nominal_voltage 7200;
	load_class C;
}

object load:392
{
	name R1-12-47-2_load_6;
	parent R1-12-47-2_meter_6;
	phases AN;
	voltage_A 7200+0.0j;
	constant_power_A 11673.3544+166.8191j;
	nominal_voltage 7200;
	load_class C;
}

object load:393
{
	name R1-12-47-2_load_7;
	parent R1-12-47-2_meter_7;
	phases AN;
	voltage_A 7200+0.0j;
	constant_power_A 15564.4725+222.4254j;
	nominal_voltage 7200;
	load_class C;
}

object load:394
{
	name R1-12-47-2_load_8;
	parent R1-12-47-2_meter_8;
	phases BN;
	voltage_B -3600-6235j;
	constant_power_B 3335.4798+101.5506j;
	nominal_voltage 7200;
	load_class C;
}

object load:395
{
	name R1-12-47-2_load_9;
	parent R1-12-47-2_meter_9;
	phases BN;
	voltage_B -3600-6235j;
	constant_power_B 11118.2659+338.5019j;
	nominal_voltage 7200;
	load_class C;
}

object load:396
{
	name R1-12-47-2_load_10;
	parent R1-12-47-2_meter_10;
	phases ABCN;
	voltage_A 7200+0.0j;
	voltage_B -3600-6235j;
	voltage_C -3600+6235j;
	constant_power_A 4669.3417+66.7276j;
	constant_power_B 3335.4798+101.5506j;
	constant_power_C 0+0j;
	nominal_voltage 7200;
	load_class C;
}

object load:397
{
	name R1-12-47-2_load_11;
	parent R1-12-47-2_meter_11;
	phases AN;
	voltage_A 7200+0.0j;
	constant_power_A 15564.4725+222.4254j;
	nominal_voltage 7200;
	load_class C;
}

object load:398
{
	name R1-12-47-2_load_12;
	parent R1-12-47-2_meter_12;
	phases AN;
	voltage_A 7200+0.0j;
	constant_power_A 4669.3417+66.7276j;
	nominal_voltage 7200;
	load_class C;
}

object load:399
{
	name R1-12-47-2_load_13;
	parent R1-12-47-2_meter_13;
	phases AN;
	voltage_A 7200+0.0j;
	constant_power_A 7782.2362+111.2127j;
	nominal_voltage 7200;
	load_class C;
}


object meter:1153
{
	name R1-12-47-2_meter_1;
	phases ABCN;
	voltage_A 7200+0.0j;
	voltage_B -3600-6235j;
	voltage_C -3600+6235j;
	nominal_voltage 7200;
}

object meter:1154
{
	name R1-12-47-2_meter_2;
	phases ABCN;
	voltage_A 7200+0.0j;
	voltage_B -3600-6235j;
	voltage_C -3600+6235j;
	nominal_voltage 7200;
}

object meter:1155
{
	name R1-12-47-2_meter_3;
	phases ABCN;
	voltage_A 7200+0.0j;
	voltage_B -3600-6235j;
	voltage_C -3600+6235j;
	nominal_voltage 7200;
}

object meter:1156
{
	name R1-12-47-2_meter_4;
	phases AN;
	voltage_A 7200+0.0j;
	nominal_voltage 7200;
}

object meter:1157
{
	name R1-12-47-2_meter_5;
	phases AN;
	voltage_A 7200+0.0j;
	nominal_voltage 7200;
}

object meter:1158
{
	name R1-12-47-2_meter_6;
	phases AN;
	voltage_A 7200+0.0j;
	nominal_voltage 7200;
}

object meter:1159
{
	name R1-12-47-2_meter_7;
	phases AN;
	voltage_A 7200+0.0j;
	nominal_voltage 7200;
}

object meter:1160
{
	name R1-12-47-2_meter_8;
	phases BN;
	voltage_B -3600-6235j;
	nominal_voltage 7200;
}

object meter:1161
{
	name R1-12-47-2_meter_9;
	phases BN;
	voltage_B -3600-6235j;
	nominal_voltage 7200;
}

object meter:1162
{
	name R1-12-47-2_meter_10;
	phases ABCN;
	voltage_A 7200+0.0j;
	voltage_B -3600-6235j;
	voltage_C -3600+6235j;
	nominal_voltage 7200;
}

object meter:1163
{
	name R1-12-47-2_meter_11;
	phases AN;
	voltage_A 7200+0.0j;
	nominal_voltage 7200;
}

object meter:1164
{
	name R1-12-47-2_meter_12;
	phases AN;
	voltage_A 7200+0.0j;
	nominal_voltage 7200;
}

object meter:1165
{
	name R1-12-47-2_meter_13;
	phases AN;
	voltage_A 7200+0.0j;
	nominal_voltage 7200;
}

// Meter at feeder
object meter:2077
{
	name R1-12-47-2_meter_14;
	phases ABCN;
	nominal_voltage 7200; 
	voltage_A 7200+0.0j;
	voltage_B -3600-6235j;
	voltage_C -3600+6235j;
}


object node:50
{
	name R1-12-47-2_node_1;
	phases ABCN;
	voltage_A 7200+0.0j;
	voltage_B -3600-6235j;
	voltage_C -3600+6235j;
	nominal_voltage 7200;
}

object node:51
{
	name R1-12-47-2_node_2;
	phases ABCN;
	voltage_A 7200+0.0j;
	voltage_B -3600-6235j;
	voltage_C -3600+6235j;
	nominal_voltage 7200;
}

object node:52
{
	name R1-12-47-2_node_3;
	phases ABCN;
	voltage_A 7200+0.0j;
	voltage_B -3600-6235j;
	voltage_C -3600+6235j;
	nominal_voltage 7200;
}

object node:53
{
	name R1-12-47-2_node_4;
	phases ABCN;
	voltage_A 7200+0.0j;
	voltage_B -3600-6235j;
	voltage_C -3600+6235j;
	nominal_voltage 7200;
}

object node:54
{
	name R1-12-47-2_node_5;
	phases ABCN;
	voltage_A 7200+0.0j;
	voltage_B -3600-6235j;
	voltage_C -3600+6235j;
	nominal_voltage 7200;
}

object node:55
{
	name R1-12-47-2_node_6;
	phases ABCN;
	voltage_A 7200+0.0j;
	voltage_B -3600-6235j;
	voltage_C -3600+6235j;
	nominal_voltage 7200;
}

object node:56
{
	name R1-12-47-2_node_7;
	phases ABCN;
	voltage_A 7200+0.0j;
	voltage_B -3600-6235j;
	voltage_C -3600+6235j;
	nominal_voltage 7200;
}

object node:57
{
	name R1-12-47-2_node_8;
	phases AN;
	voltage_A 7200+0.0j;
	nominal_voltage 7200;
}

object node:58
{
	name R1-12-47-2_node_9;
	phases AN;
	voltage_A 7200+0.0j;
	nominal_voltage 7200;
}

object node:59
{
	name R1-12-47-2_node_10;
	phases AN;
	voltage_A 7200+0.0j;
	nominal_voltage 7200;
}

object node:60
{
	name R1-12-47-2_node_11;
	phases AN;
	voltage_A 7200+0.0j;
	nominal_voltage 7200;
}

object node:61
{
	name R1-12-47-2_node_12;
	phases AN;
	voltage_A 7200+0.0j;
	nominal_voltage 7200;
}

object node:62
{
	name R1-12-47-2_node_13;
	phases AN;
	voltage_A 7200+0.0j;
	nominal_voltage 7200;
}

object node:63
{
	name R1-12-47-2_node_14;
	phases AN;
	voltage_A 7200+0.0j;
	nominal_voltage 7200;
}

object node:64
{
	name R1-12-47-2_node_15;
	phases AN;
	voltage_A 7200+0.0j;
	nominal_voltage 7200;
}

object node:65
{
	name R1-12-47-2_node_16;
	phases AN;
	voltage_A 7200+0.0j;
	nominal_voltage 7200;
}

object node:66
{
	name R1-12-47-2_node_17;
	phases ABCN;
	voltage_A 7200+0.0j;
	voltage_B -3600-6235j;
	voltage_C -3600+6235j;
	nominal_voltage 7200;
}

object node:67
{
	name R1-12-47-2_node_18;
	phases ABCN;
	voltage_A 7200+0.0j;
	voltage_B -3600-6235j;
	voltage_C -3600+6235j;
	nominal_voltage 7200;
}

object node:68
{
	name R1-12-47-2_node_19;
	phases CN;
	voltage_C -3600+6235j;
	nominal_voltage 7200;
}

object node:69
{
	name R1-12-47-2_node_20;
	phases CN;
	voltage_C -3600+6235j;
	nominal_voltage 7200;
}

object node:70
{
	name R1-12-47-2_node_21;
	phases ABCN;
	voltage_A 7200+0.0j;
	voltage_B -3600-6235j;
	voltage_C -3600+6235j;
	nominal_voltage 7200;
}

object node:71
{
	name R1-12-47-2_node_22;
	phases BN;
	voltage_B -3600-6235j;
	nominal_voltage 7200;
}

object node:72
{
	name R1-12-47-2_node_23;
	phases BN;
	voltage_B -3600-6235j;
	nominal_voltage 7200;
}

object node:73
{
	name R1-12-47-2_node_24;
	phases ABCN;
	voltage_A 7200+0.0j;
	voltage_B -3600-6235j;
	voltage_C -3600+6235j;
	nominal_voltage 7200;
}

object node:74
{
	name R1-12-47-2_node_25;
	phases AN;
	voltage_A 7200+0.0j;
	nominal_voltage 7200;
}

object node:75
{
	name R1-12-47-2_node_26;
	phases AN;
	voltage_A 7200+0.0j;
	nominal_voltage 7200;
}

object node:76
{
	name R1-12-47-2_node_27;
	phases AN;
	voltage_A 7200+0.0j;
	nominal_voltage 7200;
}

object node:77
{
	name R1-12-47-2_node_28;
	phases ABCN;
	voltage_A 7200+0.0j;
	voltage_B -3600-6235j;
	voltage_C -3600+6235j;
	nominal_voltage 7200;
}

object node:78
{
	name R1-12-47-2_node_29;
	phases BCN;
	voltage_B -3600-6235j;
	voltage_C -3600+6235j;
	nominal_voltage 7200;
}

object node:79
{
	name R1-12-47-2_node_30;
	phases BCN;
	voltage_B -3600-6235j;
	voltage_C -3600+6235j;
	nominal_voltage 7200;
}

object node:80
{
	name R1-12-47-2_node_31;
	phases CN;
	voltage_C -3600+6235j;
	nominal_voltage 7200;
}

object node:81
{
	name R1-12-47-2_node_32;
	phases BCN;
	voltage_B -3600-6235j;
	voltage_C -3600+6235j;
	nominal_voltage 7200;
}

object node:82
{
	name R1-12-47-2_node_33;
	phases BCN;
	voltage_B -3600-6235j;
	voltage_C -3600+6235j;
	nominal_voltage 7200;
}

object node:83
{
	name R1-12-47-2_node_34;
	phases BN;
	voltage_B -3600-6235j;
	nominal_voltage 7200;
}

object node:84
{
	name R1-12-47-2_node_35;
	phases CN;
	voltage_C -3600+6235j;
	nominal_voltage 7200;
}

object node:85
{
	name R1-12-47-2_node_36;
	phases CN;
	voltage_C -3600+6235j;
	nominal_voltage 7200;
}

object node:86
{
	name R1-12-47-2_node_37;
	phases CN;
	voltage_C -3600+6235j;
	nominal_voltage 7200;
}

object node:87
{
	name R1-12-47-2_node_38;
	phases CN;
	voltage_C -3600+6235j;
	nominal_voltage 7200;
}

object node:88
{
	name R1-12-47-2_node_39;
	phases CN;
	voltage_C -3600+6235j;
	nominal_voltage 7200;
}

object node:89
{
	name R1-12-47-2_node_40;
	phases CN;
	voltage_C -3600+6235j;
	nominal_voltage 7200;
}

object node:90
{
	name R1-12-47-2_node_41;
	phases CN;
	voltage_C -3600+6235j;
	nominal_voltage 7200;
}

object node:91
{
	name R1-12-47-2_node_42;
	phases CN;
	voltage_C -3600+6235j;
	nominal_voltage 7200;
}

object node:92
{
	name R1-12-47-2_node_43;
	phases CN;
	voltage_C -3600+6235j;
	nominal_voltage 7200;
}

object node:93
{
	name R1-12-47-2_node_44;
	phases CN;
	voltage_C -3600+6235j;
	nominal_voltage 7200;
}

object node:94
{
	name R1-12-47-2_node_45;
	phases CN;
	voltage_C -3600+6235j;
	nominal_voltage 7200;
}

object node:95
{
	name R1-12-47-2_node_46;
	phases CN;
	voltage_C -3600+6235j;
	nominal_voltage 7200;
}

object node:96
{
	name R1-12-47-2_node_47;
	phases CN;
	voltage_C -3600+6235j;
	nominal_voltage 7200;
}

object node:97
{
	name R1-12-47-2_node_48;
	phases CN;
	voltage_C -3600+6235j;
	nominal_voltage 7200;
}

object node:98
{
	name R1-12-47-2_node_49;
	phases CN;
	voltage_C -3600+6235j;
	nominal_voltage 7200;
}

object node:99
{
	name R1-12-47-2_node_50;
	phases CN;
	voltage_C -3600+6235j;
	nominal_voltage 7200;
}

object node:100
{
	name R1-12-47-2_node_51;
	phases CN;
	voltage_C -3600+6235j;
	nominal_voltage 7200;
}

object node:101
{
	name R1-12-47-2_node_52;
	phases CN;
	voltage_C -3600+6235j;
	nominal_voltage 7200;
}

object node:102
{
	name R1-12-47-2_node_53;
	phases CN;
	voltage_C -3600+6235j;
	nominal_voltage 7200;
}

object node:103
{
	name R1-12-47-2_node_54;
	phases ABCN;
	voltage_A 7200+0.0j;
	voltage_B -3600-6235j;
	voltage_C -3600+6235j;
	nominal_voltage 7200;
}

object node:104
{
	name R1-12-47-2_node_55;
	phases ABCN;
	voltage_A 7200+0.0j;
	voltage_B -3600-6235j;
	voltage_C -3600+6235j;
	nominal_voltage 7200;
}

object node:105
{
	name R1-12-47-2_node_56;
	phases ABCN;
	voltage_A 7200+0.0j;
	voltage_B -3600-6235j;
	voltage_C -3600+6235j;
	nominal_voltage 7200;
}

object node:106
{
	name R1-12-47-2_node_57;
	phases ABCN;
	voltage_A 7200+0.0j;
	voltage_B -3600-6235j;
	voltage_C -3600+6235j;
	nominal_voltage 7200;
}

object node:107
{
	name R1-12-47-2_node_58;
	phases BN;
	voltage_B -3600-6235j;
	nominal_voltage 7200;
}

object node:108
{
	name R1-12-47-2_node_59;
	phases BN;
	voltage_B -3600-6235j;
	nominal_voltage 7200;
}

object node:109
{
	name R1-12-47-2_node_60;
	phases BN;
	voltage_B -3600-6235j;
	nominal_voltage 7200;
}

object node:110
{
	name R1-12-47-2_node_61;
	phases BN;
	voltage_B -3600-6235j;
	nominal_voltage 7200;
}

object node:111
{
	name R1-12-47-2_node_62;
	phases BN;
	voltage_B -3600-6235j;
	nominal_voltage 7200;
}

object node:112
{
	name R1-12-47-2_node_63;
	phases BN;
	voltage_B -3600-6235j;
	nominal_voltage 7200;
}

object node:113
{
	name R1-12-47-2_node_64;
	phases BN;
	voltage_B -3600-6235j;
	nominal_voltage 7200;
}

object node:114
{
	name R1-12-47-2_node_65;
	phases BN;
	voltage_B -3600-6235j;
	nominal_voltage 7200;
}

object node:115
{
	name R1-12-47-2_node_66;
	phases BN;
	voltage_B -3600-6235j;
	nominal_voltage 7200;
}

object node:116
{
	name R1-12-47-2_node_67;
	phases BN;
	voltage_B -3600-6235j;
	nominal_voltage 7200;
}

object node:117
{
	name R1-12-47-2_node_68;
	phases BN;
	voltage_B -3600-6235j;
	nominal_voltage 7200;
}

object node:118
{
	name R1-12-47-2_node_69;
	phases BN;
	voltage_B -3600-6235j;
	nominal_voltage 7200;
}

object node:119
{
	name R1-12-47-2_node_70;
	phases BN;
	voltage_B -3600-6235j;
	nominal_voltage 7200;
}

object node:120
{
	name R1-12-47-2_node_71;
	phases BN;
	voltage_B -3600-6235j;
	nominal_voltage 7200;
}

object node:121
{
	name R1-12-47-2_node_72;
	phases BN;
	voltage_B -3600-6235j;
	nominal_voltage 7200;
}

object node:122
{
	name R1-12-47-2_node_73;
	phases BN;
	voltage_B -3600-6235j;
	nominal_voltage 7200;
}

object node:123
{
	name R1-12-47-2_node_74;
	phases BN;
	voltage_B -3600-6235j;
	nominal_voltage 7200;
}

object node:124
{
	name R1-12-47-2_node_75;
	phases BN;
	voltage_B -3600-6235j;
	nominal_voltage 7200;
}

object node:125
{
	name R1-12-47-2_node_76;
	phases BN;
	voltage_B -3600-6235j;
	nominal_voltage 7200;
}

object node:126
{
	name R1-12-47-2_node_77;
	phases BN;
	voltage_B -3600-6235j;
	nominal_voltage 7200;
}

object node:127
{
	name R1-12-47-2_node_78;
	phases BN;
	voltage_B -3600-6235j;
	nominal_voltage 7200;
}

object node:128
{
	name R1-12-47-2_node_79;
	phases BN;
	voltage_B -3600-6235j;
	nominal_voltage 7200;
}

object node:129
{
	name R1-12-47-2_node_80;
	phases BN;
	voltage_B -3600-6235j;
	nominal_voltage 7200;
}

object node:130
{
	name R1-12-47-2_node_81;
	phases BN;
	voltage_B -3600-6235j;
	nominal_voltage 7200;
}

object node:131
{
	name R1-12-47-2_node_82;
	phases BN;
	voltage_B -3600-6235j;
	nominal_voltage 7200;
}

object node:132
{
	name R1-12-47-2_node_83;
	phases BN;
	voltage_B -3600-6235j;
	nominal_voltage 7200;
}

object node:133
{
	name R1-12-47-2_node_84;
	phases BN;
	voltage_B -3600-6235j;
	nominal_voltage 7200;
}

object node:134
{
	name R1-12-47-2_node_85;
	phases BN;
	voltage_B -3600-6235j;
	nominal_voltage 7200;
}

object node:135
{
	name R1-12-47-2_node_86;
	phases BN;
	voltage_B -3600-6235j;
	nominal_voltage 7200;
}

object node:136
{
	name R1-12-47-2_node_87;
	phases BN;
	voltage_B -3600-6235j;
	nominal_voltage 7200;
}

object node:137
{
	name R1-12-47-2_node_88;
	phases BN;
	voltage_B -3600-6235j;
	nominal_voltage 7200;
}

object node:138
{
	name R1-12-47-2_node_89;
	phases BN;
	voltage_B -3600-6235j;
	nominal_voltage 7200;
}

object node:139
{
	name R1-12-47-2_node_90;
	phases BN;
	voltage_B -3600-6235j;
	nominal_voltage 7200;
}

object node:140
{
	name R1-12-47-2_node_91;
	phases BN;
	voltage_B -3600-6235j;
	nominal_voltage 7200;
}

object node:141
{
	name R1-12-47-2_node_92;
	phases BN;
	voltage_B -3600-6235j;
	nominal_voltage 7200;
}

object node:142
{
	name R1-12-47-2_node_93;
	phases BN;
	voltage_B -3600-6235j;
	nominal_voltage 7200;
}

object node:143
{
	name R1-12-47-2_node_94;
	phases BN;
	voltage_B -3600-6235j;
	nominal_voltage 7200;
}

object node:144
{
	name R1-12-47-2_node_95;
	phases BN;
	voltage_B -3600-6235j;
	nominal_voltage 7200;
}

object node:145
{
	name R1-12-47-2_node_96;
	phases BN;
	voltage_B -3600-6235j;
	nominal_voltage 7200;
}

object node:146
{
	name R1-12-47-2_node_97;
	phases BN;
	voltage_B -3600-6235j;
	nominal_voltage 7200;
}

object node:147
{
	name R1-12-47-2_node_98;
	phases BN;
	voltage_B -3600-6235j;
	nominal_voltage 7200;
}

object node:148
{
	name R1-12-47-2_node_99;
	phases BN;
	voltage_B -3600-6235j;
	nominal_voltage 7200;
}

object node:149
{
	name R1-12-47-2_node_100;
	phases BN;
	voltage_B -3600-6235j;
	nominal_voltage 7200;
}

object node:150
{
	name R1-12-47-2_node_101;
	phases BN;
	voltage_B -3600-6235j;
	nominal_voltage 7200;
}

object node:151
{
	name R1-12-47-2_node_102;
	phases BN;
	voltage_B -3600-6235j;
	nominal_voltage 7200;
}

object node:152
{
	name R1-12-47-2_node_103;
	phases BN;
	voltage_B -3600-6235j;
	nominal_voltage 7200;
}

object node:153
{
	name R1-12-47-2_node_104;
	phases BN;
	voltage_B -3600-6235j;
	nominal_voltage 7200;
}

object node:154
{
	name R1-12-47-2_node_105;
	phases BN;
	voltage_B -3600-6235j;
	nominal_voltage 7200;
}

object node:155
{
	name R1-12-47-2_node_106;
	phases BN;
	voltage_B -3600-6235j;
	nominal_voltage 7200;
}

object node:156
{
	name R1-12-47-2_node_107;
	phases BN;
	voltage_B -3600-6235j;
	nominal_voltage 7200;
}

object node:157
{
	name R1-12-47-2_node_108;
	phases BN;
	voltage_B -3600-6235j;
	nominal_voltage 7200;
}

object node:158
{
	name R1-12-47-2_node_109;
	phases BN;
	voltage_B -3600-6235j;
	nominal_voltage 7200;
}

object node:159
{
	name R1-12-47-2_node_110;
	phases BN;
	voltage_B -3600-6235j;
	nominal_voltage 7200;
}

object node:160
{
	name R1-12-47-2_node_111;
	phases ABCN;
	voltage_A 7200+0.0j;
	voltage_B -3600-6235j;
	voltage_C -3600+6235j;
	nominal_voltage 7200;
}

object node:161
{
	name R1-12-47-2_node_112;
	phases AN;
	voltage_A 7200+0.0j;
	nominal_voltage 7200;
}

object node:162
{
	name R1-12-47-2_node_113;
	phases AN;
	voltage_A 7200+0.0j;
	nominal_voltage 7200;
}

object node:163
{
	name R1-12-47-2_node_114;
	phases ABCN;
	voltage_A 7200+0.0j;
	voltage_B -3600-6235j;
	voltage_C -3600+6235j;
	nominal_voltage 7200;
}

object node:164
{
	name R1-12-47-2_node_115;
	phases AN;
	voltage_A 7200+0.0j;
	nominal_voltage 7200;
}

object node:165
{
	name R1-12-47-2_node_116;
	phases ABCN;
	voltage_A 7200+0.0j;
	voltage_B -3600-6235j;
	voltage_C -3600+6235j;
	nominal_voltage 7200;
}

object node:166
{
	name R1-12-47-2_node_117;
	phases BN;
	voltage_B -3600-6235j;
	nominal_voltage 7200;
}

object node:167
{
	name R1-12-47-2_node_118;
	phases ABCN;
	voltage_A 7200+0.0j;
	voltage_B -3600-6235j;
	voltage_C -3600+6235j;
	nominal_voltage 7200;
}

object node:168
{
	name R1-12-47-2_node_119;
	phases ABN;
	voltage_A 7200+0.0j;
	voltage_B -3600-6235j;
	nominal_voltage 7200;
}

object node:169
{
	name R1-12-47-2_node_120;
	phases ABN;
	voltage_A 7200+0.0j;
	voltage_B -3600-6235j;
	nominal_voltage 7200;
}

object node:170
{
	name R1-12-47-2_node_121;
	phases ABN;
	voltage_A 7200+0.0j;
	voltage_B -3600-6235j;
	nominal_voltage 7200;
}

object node:171
{
	name R1-12-47-2_node_122;
	phases BN;
	voltage_B -3600-6235j;
	nominal_voltage 7200;
}

object node:172
{
	name R1-12-47-2_node_123;
	phases BN;
	voltage_B -3600-6235j;
	nominal_voltage 7200;
}

object node:173
{
	name R1-12-47-2_node_124;
	phases ABN;
	voltage_A 7200+0.0j;
	voltage_B -3600-6235j;
	nominal_voltage 7200;
}

object node:174
{
	name R1-12-47-2_node_125;
	phases ABN;
	voltage_A 7200+0.0j;
	voltage_B -3600-6235j;
	nominal_voltage 7200;
}

object node:175
{
	name R1-12-47-2_node_126;
	phases AN;
	voltage_A 7200+0.0j;
	nominal_voltage 7200;
}

object node:176
{
	name R1-12-47-2_node_127;
	phases AN;
	voltage_A 7200+0.0j;
	nominal_voltage 7200;
}

object node:177
{
	name R1-12-47-2_node_128;
	phases AN;
	voltage_A 7200+0.0j;
	nominal_voltage 7200;
}

object node:178
{
	name R1-12-47-2_node_129;
	phases AN;
	voltage_A 7200+0.0j;
	nominal_voltage 7200;
}

object node:179
{
	name R1-12-47-2_node_130;
	phases AN;
	voltage_A 7200+0.0j;
	nominal_voltage 7200;
}

object node:180
{
	name R1-12-47-2_node_131;
	phases AN;
	voltage_A 7200+0.0j;
	nominal_voltage 7200;
}

object node:181
{
	name R1-12-47-2_node_132;
	phases AN;
	voltage_A 7200+0.0j;
	nominal_voltage 7200;
}

object node:182
{
	name R1-12-47-2_node_133;
	phases AN;
	voltage_A 7200+0.0j;
	nominal_voltage 7200;
}

object node:183
{
	name R1-12-47-2_node_134;
	phases AN;
	voltage_A 7200+0.0j;
	nominal_voltage 7200;
}

object node:184
{
	name R1-12-47-2_node_135;
	phases AN;
	voltage_A 7200+0.0j;
	nominal_voltage 7200;
}

object node:185
{
	name R1-12-47-2_node_136;
	phases AN;
	voltage_A 7200+0.0j;
	nominal_voltage 7200;
}

object node:186
{
	name R1-12-47-2_node_137;
	phases AN;
	voltage_A 7200+0.0j;
	nominal_voltage 7200;
}

object node:187
{
	name R1-12-47-2_node_138;
	phases AN;
	voltage_A 7200+0.0j;
	nominal_voltage 7200;
}

object node:188
{
	name R1-12-47-2_node_139;
	phases AN;
	voltage_A 7200+0.0j;
	nominal_voltage 7200;
}

object node:189
{
	name R1-12-47-2_node_140;
	phases AN;
	voltage_A 7200+0.0j;
	nominal_voltage 7200;
}

object node:190
{
	name R1-12-47-2_node_141;
	phases AN;
	voltage_A 7200+0.0j;
	nominal_voltage 7200;
}

object node:191
{
	name R1-12-47-2_node_142;
	phases AN;
	voltage_A 7200+0.0j;
	nominal_voltage 7200;
}

object node:192
{
	name R1-12-47-2_node_143;
	phases AN;
	voltage_A 7200+0.0j;
	nominal_voltage 7200;
}

object node:193
{
	name R1-12-47-2_node_144;
	phases AN;
	voltage_A 7200+0.0j;
	nominal_voltage 7200;
}

object node:194
{
	name R1-12-47-2_node_145;
	phases AN;
	voltage_A 7200+0.0j;
	nominal_voltage 7200;
}

object node:195
{
	name R1-12-47-2_node_146;
	phases AN;
	voltage_A 7200+0.0j;
	nominal_voltage 7200;
}

object node:196
{
	name R1-12-47-2_node_147;
	phases AN;
	voltage_A 7200+0.0j;
	nominal_voltage 7200;
}

object node:197
{
	name R1-12-47-2_node_148;
	phases AN;
	voltage_A 7200+0.0j;
	nominal_voltage 7200;
}

object node:198
{
	name R1-12-47-2_node_149;
	phases AN;
	voltage_A 7200+0.0j;
	nominal_voltage 7200;
}

object node:199
{
	name R1-12-47-2_node_150;
	phases AN;
	voltage_A 7200+0.0j;
	nominal_voltage 7200;
}

object node:200
{
	name R1-12-47-2_node_151;
	phases AN;
	voltage_A 7200+0.0j;
	nominal_voltage 7200;
}

object node:201
{
	name R1-12-47-2_node_152;
	phases AN;
	voltage_A 7200+0.0j;
	nominal_voltage 7200;
}

object node:202
{
	name R1-12-47-2_node_153;
	phases AN;
	voltage_A 7200+0.0j;
	nominal_voltage 7200;
}

object node:203
{
	name R1-12-47-2_node_154;
	phases AN;
	voltage_A 7200+0.0j;
	nominal_voltage 7200;
}

object node:204
{
	name R1-12-47-2_node_155;
	phases AN;
	voltage_A 7200+0.0j;
	nominal_voltage 7200;
}

object node:205
{
	name R1-12-47-2_node_156;
	phases AN;
	voltage_A 7200+0.0j;
	nominal_voltage 7200;
}

object node:206
{
	name R1-12-47-2_node_157;
	phases AN;
	voltage_A 7200+0.0j;
	nominal_voltage 7200;
}

object node:207
{
	name R1-12-47-2_node_158;
	phases AN;
	voltage_A 7200+0.0j;
	nominal_voltage 7200;
}

object node:208
{
	name R1-12-47-2_node_159;
	phases AN;
	voltage_A 7200+0.0j;
	nominal_voltage 7200;
}

object node:209
{
	name R1-12-47-2_node_160;
	phases AN;
	voltage_A 7200+0.0j;
	nominal_voltage 7200;
}

object node:210
{
	name R1-12-47-2_node_161;
	phases AN;
	voltage_A 7200+0.0j;
	nominal_voltage 7200;
}

object node:211
{
	name R1-12-47-2_node_162;
	phases AN;
	voltage_A 7200+0.0j;
	nominal_voltage 7200;
}

object node:212
{
	name R1-12-47-2_node_163;
	phases AN;
	voltage_A 7200+0.0j;
	nominal_voltage 7200;
}

object node:213
{
	name R1-12-47-2_node_164;
	phases CN;
	voltage_C -3600+6235j;
	nominal_voltage 7200;
}

object node:214
{
	name R1-12-47-2_node_165;
	phases CN;
	voltage_C -3600+6235j;
	nominal_voltage 7200;
}

object node:215
{
	name R1-12-47-2_node_166;
	phases CN;
	voltage_C -3600+6235j;
	nominal_voltage 7200;
}

object node:216
{
	name R1-12-47-2_node_167;
	phases CN;
	voltage_C -3600+6235j;
	nominal_voltage 7200;
}

object node:217
{
	name R1-12-47-2_node_168;
	phases CN;
	voltage_C -3600+6235j;
	nominal_voltage 7200;
}

object node:218
{
	name R1-12-47-2_node_169;
	phases CN;
	voltage_C -3600+6235j;
	nominal_voltage 7200;
}

object node:219
{
	name R1-12-47-2_node_170;
	phases CN;
	voltage_C -3600+6235j;
	nominal_voltage 7200;
}

object node:220
{
	name R1-12-47-2_node_171;
	phases CN;
	voltage_C -3600+6235j;
	nominal_voltage 7200;
}

object node:221
{
	name R1-12-47-2_node_172;
	phases CN;
	voltage_C -3600+6235j;
	nominal_voltage 7200;
}

object node:222
{
	name R1-12-47-2_node_173;
	phases CN;
	voltage_C -3600+6235j;
	nominal_voltage 7200;
}

object node:223
{
	name R1-12-47-2_node_174;
	phases CN;
	voltage_C -3600+6235j;
	nominal_voltage 7200;
}

object node:224
{
	name R1-12-47-2_node_175;
	phases CN;
	voltage_C -3600+6235j;
	nominal_voltage 7200;
}

object node:225
{
	name R1-12-47-2_node_176;
	phases CN;
	voltage_C -3600+6235j;
	nominal_voltage 7200;
}

object node:226
{
	name R1-12-47-2_node_177;
	phases CN;
	voltage_C -3600+6235j;
	nominal_voltage 7200;
}

object node:227
{
	name R1-12-47-2_node_178;
	phases CN;
	voltage_C -3600+6235j;
	nominal_voltage 7200;
}

object node:228
{
	name R1-12-47-2_node_179;
	phases CN;
	voltage_C -3600+6235j;
	nominal_voltage 7200;
}

object node:229
{
	name R1-12-47-2_node_180;
	phases CN;
	voltage_C -3600+6235j;
	nominal_voltage 7200;
}

object node:230
{
	name R1-12-47-2_node_181;
	phases CN;
	voltage_C -3600+6235j;
	nominal_voltage 7200;
}

object node:231
{
	name R1-12-47-2_node_182;
	phases CN;
	voltage_C -3600+6235j;
	nominal_voltage 7200;
}

object node:232
{
	name R1-12-47-2_node_183;
	phases ABCN;
	voltage_A 7200+0.0j;
	voltage_B -3600-6235j;
	voltage_C -3600+6235j;
	nominal_voltage 7200;
}

object node:233
{
	name R1-12-47-2_node_184;
	phases BCN;
	voltage_B -3600-6235j;
	voltage_C -3600+6235j;
	nominal_voltage 7200;
}

object node:234
{
	name R1-12-47-2_node_185;
	phases BCN;
	voltage_B -3600-6235j;
	voltage_C -3600+6235j;
	nominal_voltage 7200;
}

object node:235
{
	name R1-12-47-2_node_186;
	phases CN;
	voltage_C -3600+6235j;
	nominal_voltage 7200;
}

object node:236
{
	name R1-12-47-2_node_187;
	phases BCN;
	voltage_B -3600-6235j;
	voltage_C -3600+6235j;
	nominal_voltage 7200;
}

object node:237
{
	name R1-12-47-2_node_188;
	phases CN;
	voltage_C -3600+6235j;
	nominal_voltage 7200;
}

object node:238
{
	name R1-12-47-2_node_189;
	phases BCN;
	voltage_B -3600-6235j;
	voltage_C -3600+6235j;
	nominal_voltage 7200;
}

object node:239
{
	name R1-12-47-2_node_190;
	phases CN;
	voltage_C -3600+6235j;
	nominal_voltage 7200;
}

object node:240
{
	name R1-12-47-2_node_191;
	phases CN;
	voltage_C -3600+6235j;
	nominal_voltage 7200;
}

object node:241
{
	name R1-12-47-2_node_192;
	phases CN;
	voltage_C -3600+6235j;
	nominal_voltage 7200;
}

object node:242
{
	name R1-12-47-2_node_193;
	phases CN;
	voltage_C -3600+6235j;
	nominal_voltage 7200;
}

object node:243
{
	name R1-12-47-2_node_194;
	phases CN;
	voltage_C -3600+6235j;
	nominal_voltage 7200;
}

object node:244
{
	name R1-12-47-2_node_195;
	phases CN;
	voltage_C -3600+6235j;
	nominal_voltage 7200;
}

object node:245
{
	name R1-12-47-2_node_196;
	phases CN;
	voltage_C -3600+6235j;
	nominal_voltage 7200;
}

object node:246
{
	name R1-12-47-2_node_197;
	phases CN;
	voltage_C -3600+6235j;
	nominal_voltage 7200;
}

object node:247
{
	name R1-12-47-2_node_198;
	phases CN;
	voltage_C -3600+6235j;
	nominal_voltage 7200;
}

object node:248
{
	name R1-12-47-2_node_199;
	phases CN;
	voltage_C -3600+6235j;
	nominal_voltage 7200;
}

object node:249
{
	name R1-12-47-2_node_200;
	phases CN;
	voltage_C -3600+6235j;
	nominal_voltage 7200;
}

object node:250
{
	name R1-12-47-2_node_201;
	phases CN;
	voltage_C -3600+6235j;
	nominal_voltage 7200;
}

object node:251
{
	name R1-12-47-2_node_202;
	phases CN;
	voltage_C -3600+6235j;
	nominal_voltage 7200;
}

object node:252
{
	name R1-12-47-2_node_203;
	phases CN;
	voltage_C -3600+6235j;
	nominal_voltage 7200;
}

object node:253
{
	name R1-12-47-2_node_204;
	phases CN;
	voltage_C -3600+6235j;
	nominal_voltage 7200;
}

object node:254
{
	name R1-12-47-2_node_205;
	phases CN;
	voltage_C -3600+6235j;
	nominal_voltage 7200;
}

object node:255
{
	name R1-12-47-2_node_206;
	phases CN;
	voltage_C -3600+6235j;
	nominal_voltage 7200;
}

object node:256
{
	name R1-12-47-2_node_207;
	phases CN;
	voltage_C -3600+6235j;
	nominal_voltage 7200;
}

object node:257
{
	name R1-12-47-2_node_208;
	phases BCN;
	voltage_B -3600-6235j;
	voltage_C -3600+6235j;
	nominal_voltage 7200;
}

object node:258
{
	name R1-12-47-2_node_209;
	phases BN;
	voltage_B -3600-6235j;
	nominal_voltage 7200;
}

object node:259
{
	name R1-12-47-2_node_210;
	phases CN;
	voltage_C -3600+6235j;
	nominal_voltage 7200;
}

object node:260
{
	name R1-12-47-2_node_211;
	phases CN;
	voltage_C -3600+6235j;
	nominal_voltage 7200;
}

object node:261
{
	name R1-12-47-2_node_212;
	phases CN;
	voltage_C -3600+6235j;
	nominal_voltage 7200;
}

object node:262
{
	name R1-12-47-2_node_213;
	phases CN;
	voltage_C -3600+6235j;
	nominal_voltage 7200;
}

object node:263
{
	name R1-12-47-2_node_214;
	phases CN;
	voltage_C -3600+6235j;
	nominal_voltage 7200;
}

object node:264
{
	name R1-12-47-2_node_215;
	phases BCN;
	voltage_B -3600-6235j;
	voltage_C -3600+6235j;
	nominal_voltage 7200;
}

object node:265
{
	name R1-12-47-2_node_216;
	phases BCN;
	voltage_B -3600-6235j;
	voltage_C -3600+6235j;
	nominal_voltage 7200;
}

object node:266
{
	name R1-12-47-2_node_217;
	phases BCN;
	voltage_B -3600-6235j;
	voltage_C -3600+6235j;
	nominal_voltage 7200;
}

object node:267
{
	name R1-12-47-2_node_218;
	phases BCN;
	voltage_B -3600-6235j;
	voltage_C -3600+6235j;
	nominal_voltage 7200;
}

object node:268
{
	name R1-12-47-2_node_219;
	phases BN;
	voltage_B -3600-6235j;
	nominal_voltage 7200;
}

object node:269
{
	name R1-12-47-2_node_220;
	phases BCN;
	voltage_B -3600-6235j;
	voltage_C -3600+6235j;
	nominal_voltage 7200;
}

object node:270
{
	name R1-12-47-2_node_221;
	phases BN;
	voltage_B -3600-6235j;
	nominal_voltage 7200;
}

object node:271
{
	name R1-12-47-2_node_222;
	phases BN;
	voltage_B -3600-6235j;
	nominal_voltage 7200;
}

object node:272
{
	name R1-12-47-2_node_223;
	phases BN;
	voltage_B -3600-6235j;
	nominal_voltage 7200;
}

object node:273
{
	name R1-12-47-2_node_224;
	phases BN;
	voltage_B -3600-6235j;
	nominal_voltage 7200;
}

object node:274
{
	name R1-12-47-2_node_225;
	phases BN;
	voltage_B -3600-6235j;
	nominal_voltage 7200;
}

object node:275
{
	name R1-12-47-2_node_226;
	phases BN;
	voltage_B -3600-6235j;
	nominal_voltage 7200;
}

object node:276
{
	name R1-12-47-2_node_227;
	phases BN;
	voltage_B -3600-6235j;
	nominal_voltage 7200;
}

object node:277
{
	name R1-12-47-2_node_228;
	phases BN;
	voltage_B -3600-6235j;
	nominal_voltage 7200;
}

object node:278
{
	name R1-12-47-2_node_229;
	phases BN;
	voltage_B -3600-6235j;
	nominal_voltage 7200;
}

object node:279
{
	name R1-12-47-2_node_230;
	phases BN;
	voltage_B -3600-6235j;
	nominal_voltage 7200;
}

object node:280
{
	name R1-12-47-2_node_231;
	phases BCN;
	voltage_B -3600-6235j;
	voltage_C -3600+6235j;
	nominal_voltage 7200;
}

object node:281
{
	name R1-12-47-2_node_232;
	phases BN;
	voltage_B -3600-6235j;
	nominal_voltage 7200;
}

object node:282
{
	name R1-12-47-2_node_233;
	phases BN;
	voltage_B -3600-6235j;
	nominal_voltage 7200;
}

object node:283
{
	name R1-12-47-2_node_234;
	phases BCN;
	voltage_B -3600-6235j;
	voltage_C -3600+6235j;
	nominal_voltage 7200;
}

object node:284
{
	name R1-12-47-2_node_235;
	phases BN;
	voltage_B -3600-6235j;
	nominal_voltage 7200;
}

object node:285
{
	name R1-12-47-2_node_236;
	phases BN;
	voltage_B -3600-6235j;
	nominal_voltage 7200;
}

object node:286
{
	name R1-12-47-2_node_237;
	phases BCN;
	voltage_B -3600-6235j;
	voltage_C -3600+6235j;
	nominal_voltage 7200;
}

object node:287
{
	name R1-12-47-2_node_238;
	phases CN;
	voltage_C -3600+6235j;
	nominal_voltage 7200;
}

object node:288
{
	name R1-12-47-2_node_239;
	phases CN;
	voltage_C -3600+6235j;
	nominal_voltage 7200;
}

object node:289
{
	name R1-12-47-2_node_240;
	phases CN;
	voltage_C -3600+6235j;
	nominal_voltage 7200;
}

object node:290
{
	name R1-12-47-2_node_241;
	phases BCN;
	voltage_B -3600-6235j;
	voltage_C -3600+6235j;
	nominal_voltage 7200;
}

object node:291
{
	name R1-12-47-2_node_242;
	phases CN;
	voltage_C -3600+6235j;
	nominal_voltage 7200;
}

object node:292
{
	name R1-12-47-2_node_243;
	phases CN;
	voltage_C -3600+6235j;
	nominal_voltage 7200;
}

object node:293
{
	name R1-12-47-2_node_244;
	phases CN;
	voltage_C -3600+6235j;
	nominal_voltage 7200;
}

object node:294
{
	name R1-12-47-2_node_245;
	phases CN;
	voltage_C -3600+6235j;
	nominal_voltage 7200;
}

object node:295
{
	name R1-12-47-2_node_246;
	phases CN;
	voltage_C -3600+6235j;
	nominal_voltage 7200;
}

object node:296
{
	name R1-12-47-2_node_247;
	phases CN;
	voltage_C -3600+6235j;
	nominal_voltage 7200;
}

object node:297
{
	name R1-12-47-2_node_248;
	phases CN;
	voltage_C -3600+6235j;
	nominal_voltage 7200;
}

object node:298
{
	name R1-12-47-2_node_249;
	phases CN;
	voltage_C -3600+6235j;
	nominal_voltage 7200;
}

object node:299
{
	name R1-12-47-2_node_250;
	phases BCN;
	voltage_B -3600-6235j;
	voltage_C -3600+6235j;
	nominal_voltage 7200;
}

object node:300
{
	name R1-12-47-2_node_251;
	phases CN;
	voltage_C -3600+6235j;
	nominal_voltage 7200;
}

object node:301
{
	name R1-12-47-2_node_252;
	phases CN;
	voltage_C -3600+6235j;
	nominal_voltage 7200;
}

object node:302
{
	name R1-12-47-2_node_253;
	phases BCN;
	voltage_B -3600-6235j;
	voltage_C -3600+6235j;
	nominal_voltage 7200;
}

object node:303
{
	name R1-12-47-2_node_254;
	phases BN;
	voltage_B -3600-6235j;
	nominal_voltage 7200;
}

object node:304
{
	name R1-12-47-2_node_255;
	phases BN;
	voltage_B -3600-6235j;
	nominal_voltage 7200;
}

object node:305
{
	name R1-12-47-2_node_256;
	phases BN;
	voltage_B -3600-6235j;
	nominal_voltage 7200;
}

object node:306
{
	name R1-12-47-2_node_257;
	phases BN;
	voltage_B -3600-6235j;
	nominal_voltage 7200;
}

object node:307
{
	name R1-12-47-2_node_258;
	phases BCN;
	voltage_B -3600-6235j;
	voltage_C -3600+6235j;
	nominal_voltage 7200;
}

object node:308
{
	name R1-12-47-2_node_259;
	phases BN;
	voltage_B -3600-6235j;
	nominal_voltage 7200;
}

object node:309
{
	name R1-12-47-2_node_260;
	phases BN;
	voltage_B -3600-6235j;
	nominal_voltage 7200;
}

object node:310
{
	name R1-12-47-2_node_261;
	phases BN;
	voltage_B -3600-6235j;
	nominal_voltage 7200;
}

object node:311
{
	name R1-12-47-2_node_262;
	phases BN;
	voltage_B -3600-6235j;
	nominal_voltage 7200;
}

object node:312
{
	name R1-12-47-2_node_263;
	phases BCN;
	voltage_B -3600-6235j;
	voltage_C -3600+6235j;
	nominal_voltage 7200;
}

object node:313
{
	name R1-12-47-2_node_264;
	phases BCN;
	voltage_B -3600-6235j;
	voltage_C -3600+6235j;
	nominal_voltage 7200;
}

object node:314
{
	name R1-12-47-2_node_265;
	phases BCN;
	voltage_B -3600-6235j;
	voltage_C -3600+6235j;
	nominal_voltage 7200;
}

object node:315
{
	name R1-12-47-2_node_266;
	phases CN;
	voltage_C -3600+6235j;
	nominal_voltage 7200;
}

object node:316
{
	name R1-12-47-2_node_267;
	phases BCN;
	voltage_B -3600-6235j;
	voltage_C -3600+6235j;
	nominal_voltage 7200;
}

object node:317
{
	name R1-12-47-2_node_268;
	phases CN;
	voltage_C -3600+6235j;
	nominal_voltage 7200;
}

object node:318
{
	name R1-12-47-2_node_269;
	phases BCN;
	voltage_B -3600-6235j;
	voltage_C -3600+6235j;
	nominal_voltage 7200;
}

object node:319
{
	name R1-12-47-2_node_270;
	phases CN;
	voltage_C -3600+6235j;
	nominal_voltage 7200;
}

object node:320
{
	name R1-12-47-2_node_271;
	phases BN;
	voltage_B -3600-6235j;
	nominal_voltage 7200;
}

object node:321
{
	name R1-12-47-2_node_272;
	phases BN;
	voltage_B -3600-6235j;
	nominal_voltage 7200;
}

object node:322
{
	name R1-12-47-2_node_273;
	phases BN;
	voltage_B -3600-6235j;
	nominal_voltage 7200;
}

object node:323
{
	name R1-12-47-2_node_274;
	phases BN;
	voltage_B -3600-6235j;
	nominal_voltage 7200;
}

object node:324
{
	name R1-12-47-2_node_275;
	phases BN;
	voltage_B -3600-6235j;
	nominal_voltage 7200;
}

object node:325
{
	name R1-12-47-2_node_276;
	phases BN;
	voltage_B -3600-6235j;
	nominal_voltage 7200;
}

object node:326
{
	name R1-12-47-2_node_277;
	phases BN;
	voltage_B -3600-6235j;
	nominal_voltage 7200;
}

object node:327
{
	name R1-12-47-2_node_278;
	phases BN;
	voltage_B -3600-6235j;
	nominal_voltage 7200;
}

object node:328
{
	name R1-12-47-2_node_279;
	phases BN;
	voltage_B -3600-6235j;
	nominal_voltage 7200;
}

object node:329
{
	name R1-12-47-2_node_280;
	phases BN;
	voltage_B -3600-6235j;
	nominal_voltage 7200;
}

object node:330
{
	name R1-12-47-2_node_281;
	phases BN;
	voltage_B -3600-6235j;
	nominal_voltage 7200;
}

object node:331
{
	name R1-12-47-2_node_282;
	phases BN;
	voltage_B -3600-6235j;
	nominal_voltage 7200;
}

object node:332
{
	name R1-12-47-2_node_283;
	phases BN;
	voltage_B -3600-6235j;
	nominal_voltage 7200;
}

object node:333
{
	name R1-12-47-2_node_284;
	phases BN;
	voltage_B -3600-6235j;
	nominal_voltage 7200;
}

object node:334
{
	name R1-12-47-2_node_285;
	phases BN;
	voltage_B -3600-6235j;
	nominal_voltage 7200;
}

object node:335
{
	name R1-12-47-2_node_286;
	phases BN;
	voltage_B -3600-6235j;
	nominal_voltage 7200;
}

object node:336
{
	name R1-12-47-2_node_287;
	phases BN;
	voltage_B -3600-6235j;
	nominal_voltage 7200;
}

object node:337
{
	name R1-12-47-2_node_288;
	phases BN;
	voltage_B -3600-6235j;
	nominal_voltage 7200;
}

object node:338
{
	name R1-12-47-2_node_289;
	phases BN;
	voltage_B -3600-6235j;
	nominal_voltage 7200;
}

object node:339
{
	name R1-12-47-2_node_290;
	phases BN;
	voltage_B -3600-6235j;
	nominal_voltage 7200;
}

object node:340
{
	name R1-12-47-2_node_291;
	phases BN;
	voltage_B -3600-6235j;
	nominal_voltage 7200;
}

object node:341
{
	name R1-12-47-2_node_292;
	phases BN;
	voltage_B -3600-6235j;
	nominal_voltage 7200;
}

object node:342
{
	name R1-12-47-2_node_293;
	phases ABCN;
	voltage_A 7200+0.0j;
	voltage_B -3600-6235j;
	voltage_C -3600+6235j;
	nominal_voltage 7200;
}

object node:343
{
	name R1-12-47-2_node_294;
	parent R1-12-47-2_meter_14;
	phases ABCN;
	voltage_A 7200+0.0j;
	voltage_B -3600-6235j;
	voltage_C -3600+6235j;
	nominal_voltage 7200;
}

object node:344
{
	name R1-12-47-2_node_295;
	phases BN;
	voltage_B -3600-6235j;
	nominal_voltage 7200;
}

object node:345
{
	name R1-12-47-2_node_296;
	phases BN;
	voltage_B -3600-6235j;
	nominal_voltage 7200;
}

object node:346
{
	name R1-12-47-2_node_297;
	phases BN;
	voltage_B -3600-6235j;
	nominal_voltage 7200;
}

object node:347
{
	name R1-12-47-2_node_298;
	phases BN;
	voltage_B -3600-6235j;
	nominal_voltage 7200;
}

object node:348
{
	name R1-12-47-2_node_299;
	phases BN;
	voltage_B -3600-6235j;
	nominal_voltage 7200;
}

object node:349
{
	name R1-12-47-2_node_300;
	phases BN;
	voltage_B -3600-6235j;
	nominal_voltage 7200;
}

object node:350
{
	name R1-12-47-2_node_301;
	phases AN;
	voltage_A 7200+0.0j;
	nominal_voltage 7200;
}

object node:351
{
	name R1-12-47-2_node_302;
	phases AN;
	voltage_A 7200+0.0j;
	nominal_voltage 7200;
}

object node:352
{
	name R1-12-47-2_node_303;
	phases AN;
	voltage_A 7200+0.0j;
	nominal_voltage 7200;
}

object node:353
{
	name R1-12-47-2_node_304;
	phases AN;
	voltage_A 7200+0.0j;
	nominal_voltage 7200;
}

object node:354
{
	name R1-12-47-2_node_305;
	phases AN;
	voltage_A 7200+0.0j;
	nominal_voltage 7200;
}

object node:355
{
	name R1-12-47-2_node_306;
	phases CN;
	voltage_C -3600+6235j;
	nominal_voltage 7200;
}

object node:356
{
	name R1-12-47-2_node_307;
	phases BN;
	voltage_B -3600-6235j;
	nominal_voltage 7200;
}

object node:357
{
	name R1-12-47-2_node_308;
	phases AN;
	voltage_A 7200+0.0j;
	nominal_voltage 7200;
}

object node:358
{
	name R1-12-47-2_node_309;
	phases AN;
	voltage_A 7200+0.0j;
	nominal_voltage 7200;
}

object node:359
{
	name R1-12-47-2_node_310;
	phases BN;
	voltage_B -3600-6235j;
	nominal_voltage 7200;
}

object node:360
{
	name R1-12-47-2_node_311;
	phases BN;
	voltage_B -3600-6235j;
	nominal_voltage 7200;
}

object node:361
{
	name R1-12-47-2_node_312;
	phases BN;
	voltage_B -3600-6235j;
	nominal_voltage 7200;
}

object node:362
{
	name R1-12-47-2_node_313;
	phases BN;
	voltage_B -3600-6235j;
	nominal_voltage 7200;
}

object node:363
{
	name R1-12-47-2_node_314;
	phases BN;
	voltage_B -3600-6235j;
	nominal_voltage 7200;
}

object node:364
{
	name R1-12-47-2_node_315;
	phases BN;
	voltage_B -3600-6235j;
	nominal_voltage 7200;
}

object node:365
{
	name R1-12-47-2_node_316;
	phases BN;
	voltage_B -3600-6235j;
	nominal_voltage 7200;
}

object node:366
{
	name R1-12-47-2_node_317;
	phases AN;
	voltage_A 7200+0.0j;
	nominal_voltage 7200;
}

object node:367
{
	name R1-12-47-2_node_318;
	phases BN;
	voltage_B -3600-6235j;
	nominal_voltage 7200;
}

object node:368
{
	name R1-12-47-2_node_319;
	phases BN;
	voltage_B -3600-6235j;
	nominal_voltage 7200;
}

object node:369
{
	name R1-12-47-2_node_320;
	phases BCN;
	voltage_B -3600-6235j;
	voltage_C -3600+6235j;
	nominal_voltage 7200;
}

object node:370
{
	name R1-12-47-2_node_321;
	phases BN;
	voltage_B -3600-6235j;
	nominal_voltage 7200;
}

object node:371
{
	name R1-12-47-2_node_322;
	phases AN;
	voltage_A 7200+0.0j;
	nominal_voltage 7200;
}

object node:372
{
	name R1-12-47-2_node_323;
	phases BN;
	voltage_B -3600-6235j;
	nominal_voltage 7200;
}

object node:373
{
	name R1-12-47-2_node_324;
	phases CN;
	voltage_C -3600+6235j;
	nominal_voltage 7200;
}

object node:374
{
...